/*--------------------------------*- C++ -*----------------------------------*\
| =========                 |                                                 |
| \\      /  F ield         | OpenFOAM: The Open Source CFD Toolbox           |
|  \\    /   O peration     | Version:  1.7.0                                 |
|   \\  /    A nd           | Web:      www.OpenFOAM.com                      |
|    \\/     M anipulation  |                                                 |
\*---------------------------------------------------------------------------*/
FoamFile
{
    version     2.0;
    format      ascii;
    class       volScalarField;
    object      nuTilda;
}
// * * * * * * * * * * * * * * * * * * * * * * * * * * * * * * * * * * * * * //

dimensions      [0 2 -1 0 0 0 0];

internalField   uniform 0.14;

boundaryField
{
    inlet
    {
        type            freestream;
        freestreamValue uniform 0.14;
    }

    outlet
    {
        type            freestream;
        freestreamValue uniform 0.14;
    }

    bottom
    {
        type            freestream;
        freestreamValue uniform 0.14;
    }

    top
    {
        type            freestream;
        freestreamValue uniform 0.14;
    }

    wing
    {
        type            fixedValue;
        value           uniform 1e-14;
    }

    defaultFaces
    {
        type            empty;
    }
}
// ************************************************************************* //
